/*--------------------------------*- C++ -*----------------------------------*\
| =========                 |                                                 |
| \\      /  F ield         | OpenFOAM: The Open Source CFD Toolbox           |
|  \\    /   O peration     | Version:  2.1.1                                 |
|   \\  /    A nd           | Web:      www.OpenFOAM.org                      |
|    \\/     M anipulation  |                                                 |
\*---------------------------------------------------------------------------*/
FoamFile
{
    version     2.0;
    format      ascii;
    class       polyBoundaryMesh;
    location    "constant/polyMesh";
    object      boundary;
}
// * * * * * * * * * * * * * * * * * * * * * * * * * * * * * * * * * * * * * //

10
(
    inlet
    {
        type            patch;
        nFaces          307;
        startFace       117615;
    }
    inpipe
    {
        type            wall;
        nFaces          1822;
        startFace       117922;
    }
    outlet
    {
        type            patch;
        nFaces          307;
        startFace       119744;
    }
    outpipe
    {
        type            wall;
        nFaces          1822;
        startFace       120051;
    }
    top
    {
        type            wall;
        nFaces          2502;
        startFace       121873;
    }
    right
    {
        type            wall;
        nFaces          1712;
        startFace       124375;
    }
    back
    {
        type            wall;
        nFaces          1206;
        startFace       126087;
    }
    forward
    {
        type            wall;
        nFaces          1206;
        startFace       127293;
    }
    left
    {
        type            wall;
        nFaces          1712;
        startFace       128499;
    }
    bottom
    {
        type            wall;
        nFaces          1810;
        startFace       130211;
    }
)
