/*--------------------------------*- C++ -*----------------------------------*\
| =========                 |                                                 |
| \\      /  F ield         | OpenFOAM: The Open Source CFD Toolbox           |
|  \\    /   O peration     | Version:  2.1.1                                 |
|   \\  /    A nd           | Web:      www.OpenFOAM.org                      |
|    \\/     M anipulation  |                                                 |
\*---------------------------------------------------------------------------*/
FoamFile
{
    version     2.0;
    format      ascii;
    class       polyBoundaryMesh;
    location    "constant/polyMesh";
    object      boundary;
}
// * * * * * * * * * * * * * * * * * * * * * * * * * * * * * * * * * * * * * //

10
(
    outpipe
    {
        type            wall;
        nFaces          1840;
        startFace       129413;
    }
    top
    {
        type            wall;
        nFaces          7318;
        startFace       131253;
    }
    left_forward
    {
        type            wall;
        nFaces          1496;
        startFace       138571;
    }
    right_forward
    {
        type            wall;
        nFaces          1496;
        startFace       140067;
    }
    left_back
    {
        type            wall;
        nFaces          1496;
        startFace       141563;
    }
    right_back
    {
        type            wall;
        nFaces          1496;
        startFace       143059;
    }
    bottom
    {
        type            wall;
        nFaces          2942;
        startFace       144555;
    }
    inlet
    {
        type            patch;
        nFaces          321;
        startFace       147497;
    }
    inpipe
    {
        type            wall;
        nFaces          1840;
        startFace       147818;
    }
    outlet
    {
        type            patch;
        nFaces          321;
        startFace       149658;
    }
)
