/*--------------------------------*- C++ -*----------------------------------*\
| =========                 |                                                 |
| \\      /  F ield         | OpenFOAM: The Open Source CFD Toolbox           |
|  \\    /   O peration     | Version:  2.1.1                                 |
|   \\  /    A nd           | Web:      www.OpenFOAM.org                      |
|    \\/     M anipulation  |                                                 |
\*---------------------------------------------------------------------------*/
FoamFile
{
    version     2.0;
    format      ascii;
    class       volScalarField;
    object      p;
}
// * * * * * * * * * * * * * * * * * * * * * * * * * * * * * * * * * * * * * //

dimensions      [0 2 -2 0 0 0 0];

internalField   uniform 0;

boundaryField
{
    inlet
    {
        type        zeroGradient;
    }
    inpipe
    {
        type        zeroGradient;
    }
    outlet
    {
        type        fixedValue;
        value        uniform 0;
    }
    outpipe
    {
        type        zeroGradient;
    }
    top
    {
        type        zeroGradient;
    }
    right
    {
        type        zeroGradient;
    }
    back
    {
        type        zeroGradient;
    }
    forward
    {
        type        zeroGradient;
    }
    left
    {
        type        zeroGradient;
    }
    bottom
    {
        type        zeroGradient;
    }
}
