/*--------------------------------*- C++ -*----------------------------------*\
| =========                 |                                                 |
| \\      /  F ield         | OpenFOAM: The Open Source CFD Toolbox           |
|  \\    /   O peration     | Version:  2.1.1                                 |
|   \\  /    A nd           | Web:      www.OpenFOAM.org                      |
|    \\/     M anipulation  |                                                 |
\*---------------------------------------------------------------------------*/
FoamFile
{
    version     2.0;
    format      ascii;
    class       polyBoundaryMesh;
    location    "constant/polyMesh";
    object      boundary;
}
// * * * * * * * * * * * * * * * * * * * * * * * * * * * * * * * * * * * * * //

10
(
    inlet
    {
        type            patch;
        nFaces          307;
        startFace       148318;
    }
    inpipe
    {
        type            wall;
        nFaces          1930;
        startFace       148625;
    }
    forward
    {
        type            wall;
        nFaces          1537;
        startFace       150555;
    }
    top
    {
        type            wall;
        nFaces          1490;
        startFace       152092;
    }
    outpipe
    {
        type            wall;
        nFaces          1930;
        startFace       153582;
    }
    right
    {
        type            wall;
        nFaces          1772;
        startFace       155512;
    }
    left
    {
        type            wall;
        nFaces          1772;
        startFace       157284;
    }
    bottom
    {
        type            wall;
        nFaces          1490;
        startFace       159056;
    }
    back
    {
        type            wall;
        nFaces          1537;
        startFace       160546;
    }
    outlet
    {
        type            patch;
        nFaces          307;
        startFace       162083;
    }
)
